
     RDKit          3D

 69 73  0  0  0  0  0  0  0  0999 V2000
   -2.7130    5.6471   -1.7009 C   0  0  0  0  0  0  0  0  0  0  0  0
   -3.1266    5.1898   -0.3159 C   0  0  0  0  0  0  0  0  0  0  0  0
   -2.8454    3.7355   -0.1460 C   0  0  0  0  0  0  0  0  0  0  0  0
   -3.8534    2.8613   -0.5003 C   0  0  0  0  0  0  0  0  0  0  0  0
   -3.6415    1.5176   -0.3609 C   0  0  0  0  0  0  0  0  0  0  0  0
   -2.4224    1.0606    0.1320 C   0  0  0  0  0  0  0  0  0  0  0  0
   -1.9226   -0.1963    0.3801 C   0  0  0  0  0  0  0  0  0  0  0  0
   -2.6621   -1.4469    0.1430 C   0  0  0  0  0  0  0  0  0  0  0  0
   -2.7351   -1.8463   -1.2873 C   0  0  0  0  0  0  0  0  0  0  0  0
   -3.4769   -3.0726   -1.4184 N   0  0  0  0  0  0  0  0  0  0  0  0
   -3.1253   -4.2985   -0.8405 C   0  0  0  0  0  0  0  0  0  0  0  0
   -3.9652   -5.5419   -1.0258 C   0  0  0  0  0  0  0  0  0  0  0  0
   -2.0779   -4.3674   -0.1454 O   0  0  0  0  0  0  0  0  0  0  0  0
   -0.6389   -0.1023    0.8749 C   0  0  0  0  0  0  0  0  0  0  0  0
    0.2544   -1.2230    1.2715 C   0  0  1  0  0  0  0  0  0  0  0  0
    1.3789   -1.3856    0.2899 C   0  0  0  0  0  0  0  0  0  0  0  0
    1.6485   -0.7056   -0.7830 C   0  0  0  0  0  0  0  0  0  0  0  0
    0.9107    0.3785   -1.2775 O   0  0  0  0  0  0  0  0  0  0  0  0
    2.8647   -1.2048   -1.4686 C   0  0  1  0  0  0  0  0  0  0  0  0
    3.8114   -0.1084   -1.7847 C   0  0  0  0  0  0  0  0  0  0  0  0
    4.2009    0.0965   -3.0870 C   0  0  0  0  0  0  0  0  0  0  0  0
    5.0874    1.1112   -3.4260 C   0  0  0  0  0  0  0  0  0  0  0  0
    5.5879    1.9321   -2.4298 C   0  0  0  0  0  0  0  0  0  0  0  0
    5.1949    1.7239   -1.1217 C   0  0  0  0  0  0  0  0  0  0  0  0
    4.3143    0.7115   -0.8069 C   0  0  0  0  0  0  0  0  0  0  0  0
    3.4706   -2.1957   -0.5330 C   0  0  0  0  0  0  0  0  0  0  0  0
    2.3878   -2.4241    0.4512 C   0  0  0  0  0  0  0  0  0  0  0  0
    2.3771   -3.3830    1.2853 O   0  0  0  0  0  0  0  0  0  0  0  0
    0.7651   -0.9951    2.6409 C   0  0  0  0  0  0  0  0  0  0  0  0
    0.0434   -1.4911    3.6963 C   0  0  0  0  0  0  0  0  0  0  0  0
    0.4638   -1.3105    4.9904 C   0  0  0  0  0  0  0  0  0  0  0  0
    1.6283   -0.6212    5.2458 C   0  0  0  0  0  0  0  0  0  0  0  0
    2.3370   -0.1319    4.1713 C   0  0  0  0  0  0  0  0  0  0  0  0
    1.9173   -0.3117    2.8687 C   0  0  0  0  0  0  0  0  0  0  0  0
   -0.3379    1.2130    0.9354 N   0  0  0  0  0  0  0  0  0  0  0  0
   -1.4013    1.9325    0.4915 C   0  0  0  0  0  0  0  0  0  0  0  0
   -1.6295    3.2926    0.3450 C   0  0  0  0  0  0  0  0  0  0  0  0
   -3.1909    6.6365   -1.8909 H   0  0  0  0  0  0  0  0  0  0  0  0
   -3.0804    4.9711   -2.4949 H   0  0  0  0  0  0  0  0  0  0  0  0
   -1.6123    5.7561   -1.7533 H   0  0  0  0  0  0  0  0  0  0  0  0
   -2.5265    5.7648    0.4036 H   0  0  0  0  0  0  0  0  0  0  0  0
   -4.1939    5.4355   -0.1468 H   0  0  0  0  0  0  0  0  0  0  0  0
   -4.8100    3.1753   -0.8852 H   0  0  0  0  0  0  0  0  0  0  0  0
   -4.3975    0.7892   -0.6238 H   0  0  0  0  0  0  0  0  0  0  0  0
   -2.2874   -2.2747    0.7620 H   0  0  0  0  0  0  0  0  0  0  0  0
   -3.7048   -1.2544    0.5389 H   0  0  0  0  0  0  0  0  0  0  0  0
   -3.1242   -1.0593   -1.9567 H   0  0  0  0  0  0  0  0  0  0  0  0
   -1.6798   -2.0223   -1.6566 H   0  0  0  0  0  0  0  0  0  0  0  0
   -4.3623   -3.0394   -2.0020 H   0  0  0  0  0  0  0  0  0  0  0  0
   -4.4803   -5.8188   -0.0811 H   0  0  0  0  0  0  0  0  0  0  0  0
   -3.2248   -6.3645   -1.2196 H   0  0  0  0  0  0  0  0  0  0  0  0
   -4.6792   -5.4023   -1.8419 H   0  0  0  0  0  0  0  0  0  0  0  0
   -0.3216   -2.1782    1.2919 H   0  0  0  0  0  0  0  0  0  0  0  0
    1.4362    1.2115   -1.5210 H   0  0  0  0  0  0  0  0  0  0  0  0
    2.6043   -1.7570   -2.4097 H   0  0  0  0  0  0  0  0  0  0  0  0
    3.8288   -0.5264   -3.8890 H   0  0  0  0  0  0  0  0  0  0  0  0
    5.3661    1.2389   -4.4490 H   0  0  0  0  0  0  0  0  0  0  0  0
    6.2731    2.7076   -2.7321 H   0  0  0  0  0  0  0  0  0  0  0  0
    5.5791    2.3586   -0.3352 H   0  0  0  0  0  0  0  0  0  0  0  0
    4.0087    0.5491    0.2073 H   0  0  0  0  0  0  0  0  0  0  0  0
    3.7876   -3.1338   -1.0344 H   0  0  0  0  0  0  0  0  0  0  0  0
    4.3191   -1.7361    0.0426 H   0  0  0  0  0  0  0  0  0  0  0  0
   -0.8976   -2.0513    3.5392 H   0  0  0  0  0  0  0  0  0  0  0  0
   -0.1387   -1.7207    5.8057 H   0  0  0  0  0  0  0  0  0  0  0  0
    1.9541   -0.4833    6.2864 H   0  0  0  0  0  0  0  0  0  0  0  0
    3.2583    0.4143    4.3626 H   0  0  0  0  0  0  0  0  0  0  0  0
    2.5336    0.1073    2.0534 H   0  0  0  0  0  0  0  0  0  0  0  0
    0.5378    1.6811    1.2557 H   0  0  0  0  0  0  0  0  0  0  0  0
   -0.8441    3.9859    0.6204 H   0  0  0  0  0  0  0  0  0  0  0  0
  1  2  1  0
  2  3  1  0
  3  4  2  0
  4  5  1  0
  5  6  2  0
  6  7  1  0
  7  8  1  0
  8  9  1  0
  9 10  1  0
 10 11  1  0
 11 12  1  0
 11 13  2  0
  7 14  2  0
 14 15  1  0
 15 16  1  0
 16 17  2  0
 17 18  1  0
 17 19  1  0
 19 20  1  0
 20 21  2  0
 21 22  1  0
 22 23  2  0
 23 24  1  0
 24 25  2  0
 19 26  1  0
 26 27  1  0
 27 28  2  0
 15 29  1  0
 29 30  2  0
 30 31  1  0
 31 32  2  0
 32 33  1  0
 33 34  2  0
 14 35  1  0
 35 36  1  0
 36 37  2  0
 37  3  1  0
 36  6  1  0
 27 16  1  0
 34 29  1  0
 25 20  1  0
  1 38  1  0
  1 39  1  0
  1 40  1  0
  2 41  1  0
  2 42  1  0
  4 43  1  0
  5 44  1  0
  8 45  1  0
  8 46  1  0
  9 47  1  0
  9 48  1  0
 10 49  1  0
 12 50  1  0
 12 51  1  0
 12 52  1  0
 15 53  1  1
 18 54  1  0
 19 55  1  6
 21 56  1  0
 22 57  1  0
 23 58  1  0
 24 59  1  0
 25 60  1  0
 26 61  1  0
 26 62  1  0
 30 63  1  0
 31 64  1  0
 32 65  1  0
 33 66  1  0
 34 67  1  0
 35 68  1  0
 37 69  1  0
M  END
$$$$
