
     RDKit          3D

 52 56  0  0  0  0  0  0  0  0999 V2000
    3.9580   -0.9894    0.0497 C   0  0  0  0  0  0  0  0  0  0  0  0
    2.7617   -0.0311   -0.0651 C   0  0  2  0  0  0  0  0  0  0  0  0
    3.1701    1.3753    0.1662 C   0  0  0  0  0  0  0  0  0  0  0  0
    4.5083    1.6384    0.3469 C   0  0  0  0  0  0  0  0  0  0  0  0
    4.9806    2.9190    0.5688 C   0  0  0  0  0  0  0  0  0  0  0  0
    4.1079    3.9765    0.6145 C   0  0  0  0  0  0  0  0  0  0  0  0
    2.7671    3.7086    0.4329 C   0  0  0  0  0  0  0  0  0  0  0  0
    2.3042    2.4240    0.2115 C   0  0  0  0  0  0  0  0  0  0  0  0
    1.6186   -0.5174    0.6596 C   0  0  0  0  0  0  0  0  0  0  0  0
    1.3608   -0.6679    1.8702 O   0  0  0  0  0  0  0  0  0  0  0  0
    0.9413   -0.7413   -0.5820 C   0  0  0  0  0  0  0  0  0  0  0  0
   -0.3955   -1.2511   -1.0171 C   0  0  1  0  0  0  0  0  0  0  0  0
   -0.7065   -2.6057   -0.5317 C   0  0  0  0  0  0  0  0  0  0  0  0
   -0.7713   -3.6769   -1.3961 C   0  0  0  0  0  0  0  0  0  0  0  0
   -1.0707   -4.9504   -0.9901 C   0  0  0  0  0  0  0  0  0  0  0  0
   -1.3204   -5.1864    0.3382 C   0  0  0  0  0  0  0  0  0  0  0  0
   -1.2592   -4.1227    1.2156 C   0  0  0  0  0  0  0  0  0  0  0  0
   -0.9573   -2.8337    0.8101 C   0  0  0  0  0  0  0  0  0  0  0  0
   -1.5206   -0.3604   -0.7516 C   0  0  0  0  0  0  0  0  0  0  0  0
   -2.6169   -0.4573   -1.6275 C   0  0  0  0  0  0  0  0  0  0  0  0
   -3.7431    0.3127   -1.5089 C   0  0  0  0  0  0  0  0  0  0  0  0
   -3.8154    1.2301   -0.4849 C   0  0  0  0  0  0  0  0  0  0  0  0
   -4.9530    2.0214   -0.3493 C   0  0  0  0  0  0  0  0  0  0  0  0
   -5.0186    2.9336    0.6731 C   0  0  0  0  0  0  0  0  0  0  0  0
   -3.9480    3.0305    1.5308 C   0  0  0  0  0  0  0  0  0  0  0  0
   -2.8262    2.2555    1.4033 C   0  0  0  0  0  0  0  0  0  0  0  0
   -2.7366    1.3247    0.3758 C   0  0  0  0  0  0  0  0  0  0  0  0
   -1.6054    0.5484    0.2533 C   0  0  0  0  0  0  0  0  0  0  0  0
    1.9849   -0.2982   -1.2455 C   0  0  0  0  0  0  0  0  0  0  0  0
    2.2762   -0.1302   -2.6095 O   0  0  0  0  0  0  0  0  0  0  0  0
    4.6987   -0.7926   -0.7389 H   0  0  0  0  0  0  0  0  0  0  0  0
    3.5837   -2.0385    0.0135 H   0  0  0  0  0  0  0  0  0  0  0  0
    4.4069   -0.8494    1.0479 H   0  0  0  0  0  0  0  0  0  0  0  0
    5.2734    0.8497    0.3253 H   0  0  0  0  0  0  0  0  0  0  0  0
    6.0413    3.0909    0.7071 H   0  0  0  0  0  0  0  0  0  0  0  0
    4.4692    5.0020    0.7903 H   0  0  0  0  0  0  0  0  0  0  0  0
    2.0484    4.5210    0.4627 H   0  0  0  0  0  0  0  0  0  0  0  0
    1.2486    2.2067    0.0677 H   0  0  0  0  0  0  0  0  0  0  0  0
   -0.3531   -1.3493   -2.1520 H   0  0  0  0  0  0  0  0  0  0  0  0
   -0.5775   -3.5080   -2.4432 H   0  0  0  0  0  0  0  0  0  0  0  0
   -1.1032   -5.7440   -1.7301 H   0  0  0  0  0  0  0  0  0  0  0  0
   -1.5524   -6.1879    0.6363 H   0  0  0  0  0  0  0  0  0  0  0  0
   -1.4571   -4.3100    2.2671 H   0  0  0  0  0  0  0  0  0  0  0  0
   -0.9321   -2.0394    1.5405 H   0  0  0  0  0  0  0  0  0  0  0  0
   -2.5958   -1.1781   -2.4569 H   0  0  0  0  0  0  0  0  0  0  0  0
   -4.5774    0.2243   -2.1924 H   0  0  0  0  0  0  0  0  0  0  0  0
   -5.7804    1.9307   -1.0308 H   0  0  0  0  0  0  0  0  0  0  0  0
   -5.9097    3.5433    0.7675 H   0  0  0  0  0  0  0  0  0  0  0  0
   -4.0005    3.7508    2.3378 H   0  0  0  0  0  0  0  0  0  0  0  0
   -1.9740    2.3163    2.0669 H   0  0  0  0  0  0  0  0  0  0  0  0
   -0.7935    0.6611    0.9457 H   0  0  0  0  0  0  0  0  0  0  0  0
    2.3613   -0.9783   -3.1590 H   0  0  0  0  0  0  0  0  0  0  0  0
  2  1  1  6
  2  3  1  0
  3  4  2  0
  4  5  1  0
  5  6  2  0
  6  7  1  0
  7  8  2  0
  2  9  1  0
  9 10  2  0
  9 11  1  0
 11 12  1  0
 12 13  1  0
 13 14  2  0
 14 15  1  0
 15 16  2  0
 16 17  1  0
 17 18  2  0
 12 19  1  0
 19 20  2  0
 20 21  1  0
 21 22  2  0
 22 23  1  0
 23 24  2  0
 24 25  1  0
 25 26  2  0
 26 27  1  0
 27 28  2  0
 11 29  2  0
 29 30  1  0
 29  2  1  0
  8  3  1  0
 18 13  1  0
 28 19  1  0
 27 22  1  0
  1 31  1  0
  1 32  1  0
  1 33  1  0
  4 34  1  0
  5 35  1  0
  6 36  1  0
  7 37  1  0
  8 38  1  0
 12 39  1  6
 14 40  1  0
 15 41  1  0
 16 42  1  0
 17 43  1  0
 18 44  1  0
 20 45  1  0
 21 46  1  0
 23 47  1  0
 24 48  1  0
 25 49  1  0
 26 50  1  0
 28 51  1  0
 30 52  1  0
M  END
$$$$
