
     RDKit          3D

 55 59  0  0  0  0  0  0  0  0999 V2000
    6.3819    2.8147    0.0719 C   0  0  0  0  0  0  0  0  0  0  0  0
    5.3164    1.8317   -0.2941 C   0  0  0  0  0  0  0  0  0  0  0  0
    5.4685    1.0952   -1.4465 C   0  0  0  0  0  0  0  0  0  0  0  0
    4.4647    0.1940   -1.7577 C   0  0  0  0  0  0  0  0  0  0  0  0
    3.3558    0.0520   -0.9288 C   0  0  0  0  0  0  0  0  0  0  0  0
    1.9599   -0.9259   -0.9838 S   0  0  0  0  0  0  0  0  0  0  0  0
    1.1906   -0.4051    0.4423 C   0  0  0  0  0  0  0  0  0  0  0  0
   -0.1052   -0.8745    0.9994 C   0  0  1  0  0  0  0  0  0  0  0  0
   -1.2687   -0.5251    0.1411 C   0  0  0  0  0  0  0  0  0  0  0  0
   -1.5075    0.0861   -0.9746 C   0  0  0  0  0  0  0  0  0  0  0  0
   -0.6818    0.7274   -1.9138 O   0  0  0  0  0  0  0  0  0  0  0  0
   -2.9366   -0.1222   -0.9192 C   0  0  2  0  0  0  0  0  0  0  0  0
   -3.5145   -1.0952   -1.9301 C   0  0  0  0  0  0  0  0  0  0  0  0
   -3.7682    1.0872   -0.7105 C   0  0  0  0  0  0  0  0  0  0  0  0
   -3.4587    2.0456    0.2234 C   0  0  0  0  0  0  0  0  0  0  0  0
   -4.2420    3.1732    0.4128 C   0  0  0  0  0  0  0  0  0  0  0  0
   -5.3616    3.3469   -0.3495 C   0  0  0  0  0  0  0  0  0  0  0  0
   -5.6843    2.3932   -1.2904 C   0  0  0  0  0  0  0  0  0  0  0  0
   -4.8962    1.2639   -1.4773 C   0  0  0  0  0  0  0  0  0  0  0  0
   -2.6665   -0.8028    0.3299 C   0  0  0  0  0  0  0  0  0  0  0  0
   -3.3925   -1.3929    1.2086 O   0  0  0  0  0  0  0  0  0  0  0  0
   -0.0408   -2.3602    1.0750 C   0  0  0  0  0  0  0  0  0  0  0  0
    0.3990   -3.0153    2.2048 C   0  0  0  0  0  0  0  0  0  0  0  0
    0.4380   -4.3716    2.2174 C   0  0  0  0  0  0  0  0  0  0  0  0
    0.0527   -5.1028    1.1395 C   0  0  0  0  0  0  0  0  0  0  0  0
   -0.3917   -4.4325   -0.0016 C   0  0  0  0  0  0  0  0  0  0  0  0
   -0.4443   -3.0597   -0.0494 C   0  0  0  0  0  0  0  0  0  0  0  0
    2.0631    0.5358    0.9296 C   0  0  0  0  0  0  0  0  0  0  0  0
    1.7068    1.2468    2.2353 C   0  0  0  0  0  0  0  0  0  0  0  0
    3.1810    0.7717    0.2215 C   0  0  0  0  0  0  0  0  0  0  0  0
    4.2197    1.6755    0.5041 C   0  0  0  0  0  0  0  0  0  0  0  0
    7.3661    2.3477   -0.0739 H   0  0  0  0  0  0  0  0  0  0  0  0
    6.2670    3.1979    1.0908 H   0  0  0  0  0  0  0  0  0  0  0  0
    6.3004    3.6435   -0.6573 H   0  0  0  0  0  0  0  0  0  0  0  0
    6.3359    1.2317   -2.0603 H   0  0  0  0  0  0  0  0  0  0  0  0
    4.5446   -0.4012   -2.6490 H   0  0  0  0  0  0  0  0  0  0  0  0
   -0.2707   -0.5018    2.0272 H   0  0  0  0  0  0  0  0  0  0  0  0
   -0.4190    0.1828   -2.7248 H   0  0  0  0  0  0  0  0  0  0  0  0
   -3.6833   -0.6363   -2.9234 H   0  0  0  0  0  0  0  0  0  0  0  0
   -2.8046   -1.9321   -2.1094 H   0  0  0  0  0  0  0  0  0  0  0  0
   -4.4245   -1.5594   -1.4997 H   0  0  0  0  0  0  0  0  0  0  0  0
   -2.5738    1.9066    0.8250 H   0  0  0  0  0  0  0  0  0  0  0  0
   -3.9884    3.9295    1.1571 H   0  0  0  0  0  0  0  0  0  0  0  0
   -5.9885    4.2299   -0.2118 H   0  0  0  0  0  0  0  0  0  0  0  0
   -6.5738    2.5462   -1.8851 H   0  0  0  0  0  0  0  0  0  0  0  0
   -5.1807    0.5421   -2.2208 H   0  0  0  0  0  0  0  0  0  0  0  0
    0.7066   -2.4220    3.0663 H   0  0  0  0  0  0  0  0  0  0  0  0
    0.7936   -4.8554    3.1348 H   0  0  0  0  0  0  0  0  0  0  0  0
    0.0947   -6.1962    1.1782 H   0  0  0  0  0  0  0  0  0  0  0  0
   -0.6872   -5.0562   -0.8322 H   0  0  0  0  0  0  0  0  0  0  0  0
   -0.7934   -2.5968   -0.9504 H   0  0  0  0  0  0  0  0  0  0  0  0
    2.6507    1.5933    2.6968 H   0  0  0  0  0  0  0  0  0  0  0  0
    1.0698    2.1006    1.9629 H   0  0  0  0  0  0  0  0  0  0  0  0
    1.2426    0.5500    2.9285 H   0  0  0  0  0  0  0  0  0  0  0  0
    4.1787    2.3005    1.4009 H   0  0  0  0  0  0  0  0  0  0  0  0
  1  2  1  0
  2  3  2  0
  3  4  1  0
  4  5  2  0
  5  6  1  0
  6  7  1  0
  7  8  1  0
  8  9  1  0
  9 10  2  0
 10 11  1  0
 10 12  1  0
 12 13  1  6
 12 14  1  0
 14 15  2  0
 15 16  1  0
 16 17  2  0
 17 18  1  0
 18 19  2  0
 12 20  1  0
 20 21  2  0
  8 22  1  0
 22 23  2  0
 23 24  1  0
 24 25  2  0
 25 26  1  0
 26 27  2  0
  7 28  2  0
 28 29  1  0
 28 30  1  0
 30 31  2  0
 31  2  1  0
 30  5  1  0
 20  9  1  0
 27 22  1  0
 19 14  1  0
  1 32  1  0
  1 33  1  0
  1 34  1  0
  3 35  1  0
  4 36  1  0
  8 37  1  1
 11 38  1  0
 13 39  1  0
 13 40  1  0
 13 41  1  0
 15 42  1  0
 16 43  1  0
 17 44  1  0
 18 45  1  0
 19 46  1  0
 23 47  1  0
 24 48  1  0
 25 49  1  0
 26 50  1  0
 27 51  1  0
 29 52  1  0
 29 53  1  0
 29 54  1  0
 31 55  1  0
M  END
$$$$
