
     RDKit          3D

 49 52  0  0  0  0  0  0  0  0999 V2000
    6.2813    1.1694    2.2899 C   0  0  0  0  0  0  0  0  0  0  0  0
    5.8644    0.8575    0.9802 O   0  0  0  0  0  0  0  0  0  0  0  0
    4.5515    1.0381    0.5492 C   0  0  0  0  0  0  0  0  0  0  0  0
    3.6740    1.4997    1.3408 O   0  0  0  0  0  0  0  0  0  0  0  0
    4.1383    0.7208   -0.7717 N   0  0  0  0  0  0  0  0  0  0  0  0
    2.8222    0.8760   -1.2741 C   0  0  0  0  0  0  0  0  0  0  0  0
    1.7751   -0.0494   -0.8287 C   0  0  0  0  0  0  0  0  0  0  0  0
    0.4173    0.0474   -1.2035 C   0  0  0  0  0  0  0  0  0  0  0  0
   -0.0342    1.1128   -2.0990 C   0  0  0  0  0  0  0  0  0  0  0  0
    0.7733    1.9850   -2.5739 O   0  0  0  0  0  0  0  0  0  0  0  0
   -1.3355    1.2810   -2.5126 O   0  0  0  0  0  0  0  0  0  0  0  0
   -0.2745   -0.9427   -0.6570 N   0  0  0  0  0  0  0  0  0  0  0  0
   -1.6825   -1.2706   -0.7993 C   0  0  0  0  0  0  0  0  0  0  0  0
   -2.5033   -0.5049    0.1186 C   0  0  0  0  0  0  0  0  0  0  0  0
   -2.1839   -0.4371    1.4672 C   0  0  0  0  0  0  0  0  0  0  0  0
   -2.8382    0.3462    2.3910 C   0  0  0  0  0  0  0  0  0  0  0  0
   -3.8843    1.1087    1.9171 C   0  0  0  0  0  0  0  0  0  0  0  0
   -4.2454    1.0812    0.6076 C   0  0  0  0  0  0  0  0  0  0  0  0
   -5.3239    1.8242    0.2173 C   0  0  0  0  0  0  0  0  0  0  0  0
   -5.7710    1.7957   -1.0989 C   0  0  0  0  0  0  0  0  0  0  0  0
   -5.0877    0.9888   -2.0031 C   0  0  0  0  0  0  0  0  0  0  0  0
   -3.9993    0.2384   -1.6165 C   0  0  0  0  0  0  0  0  0  0  0  0
   -3.5582    0.2702   -0.3166 C   0  0  0  0  0  0  0  0  0  0  0  0
    0.6076   -1.7176    0.0862 C   0  0  0  0  0  0  0  0  0  0  0  0
    0.3261   -2.8663    0.7951 C   0  0  0  0  0  0  0  0  0  0  0  0
    1.3956   -3.5034    1.4390 C   0  0  0  0  0  0  0  0  0  0  0  0
    2.6600   -2.9744    1.3451 C   0  0  0  0  0  0  0  0  0  0  0  0
    3.7217   -3.5851    1.9737 F   0  0  0  0  0  0  0  0  0  0  0  0
    2.8948   -1.8177    0.6207 C   0  0  0  0  0  0  0  0  0  0  0  0
    1.8636   -1.1591   -0.0281 C   0  0  0  0  0  0  0  0  0  0  0  0
    7.3781    0.9616    2.3564 H   0  0  0  0  0  0  0  0  0  0  0  0
    6.0473    2.2177    2.5725 H   0  0  0  0  0  0  0  0  0  0  0  0
    5.8083    0.5038    3.0398 H   0  0  0  0  0  0  0  0  0  0  0  0
    4.9216    0.3323   -1.3946 H   0  0  0  0  0  0  0  0  0  0  0  0
    2.9001    0.8858   -2.4105 H   0  0  0  0  0  0  0  0  0  0  0  0
    2.4700    1.9629   -1.0933 H   0  0  0  0  0  0  0  0  0  0  0  0
   -1.5880    1.8561   -3.3151 H   0  0  0  0  0  0  0  0  0  0  0  0
   -1.7962   -2.3905   -0.6207 H   0  0  0  0  0  0  0  0  0  0  0  0
   -1.8690   -1.1101   -1.8831 H   0  0  0  0  0  0  0  0  0  0  0  0
   -1.3729   -1.0276    1.8228 H   0  0  0  0  0  0  0  0  0  0  0  0
   -2.5277    0.3403    3.4173 H   0  0  0  0  0  0  0  0  0  0  0  0
   -4.3959    1.7287    2.6676 H   0  0  0  0  0  0  0  0  0  0  0  0
   -5.8533    2.4537    0.9297 H   0  0  0  0  0  0  0  0  0  0  0  0
   -6.6248    2.3911   -1.3836 H   0  0  0  0  0  0  0  0  0  0  0  0
   -5.4539    0.9819   -3.0164 H   0  0  0  0  0  0  0  0  0  0  0  0
   -3.5181   -0.3701   -2.3543 H   0  0  0  0  0  0  0  0  0  0  0  0
   -0.6665   -3.2785    0.8676 H   0  0  0  0  0  0  0  0  0  0  0  0
    1.2030   -4.3867    1.9921 H   0  0  0  0  0  0  0  0  0  0  0  0
    3.8932   -1.4650    0.5498 H   0  0  0  0  0  0  0  0  0  0  0  0
  1  2  1  0
  2  3  1  0
  3  4  2  0
  3  5  1  0
  5  6  1  0
  6  7  1  0
  7  8  2  0
  8  9  1  0
  9 10  2  0
  9 11  1  0
  8 12  1  0
 12 13  1  0
 13 14  1  0
 14 15  2  0
 15 16  1  0
 16 17  2  0
 17 18  1  0
 18 19  2  0
 19 20  1  0
 20 21  2  0
 21 22  1  0
 22 23  2  0
 12 24  1  0
 24 25  2  0
 25 26  1  0
 26 27  2  0
 27 28  1  0
 27 29  1  0
 29 30  2  0
 30  7  1  0
 23 14  1  0
 30 24  1  0
 23 18  1  0
  1 31  1  0
  1 32  1  0
  1 33  1  0
  5 34  1  0
  6 35  1  0
  6 36  1  0
 11 37  1  0
 13 38  1  0
 13 39  1  0
 15 40  1  0
 16 41  1  0
 17 42  1  0
 19 43  1  0
 20 44  1  0
 21 45  1  0
 22 46  1  0
 25 47  1  0
 26 48  1  0
 29 49  1  0
M  END
$$$$
