
     RDKit          3D

 45 48  0  0  0  0  0  0  0  0999 V2000
    1.7143    2.4468    0.1421 C   0  0  0  0  0  0  0  0  0  0  0  0
    2.6885    1.3099    0.4151 C   0  0  0  0  0  0  0  0  0  0  0  0
    2.5753    0.6005    1.5655 C   0  0  0  0  0  0  0  0  0  0  0  0
    1.4780    0.6630    2.9230 S   0  0  0  0  0  6  0  0  0  0  0  0
    1.0133    2.0820    3.1604 O   0  0  0  0  0  0  0  0  0  0  0  0
    2.2788    0.3116    4.1729 O   0  0  0  0  0  0  0  0  0  0  0  0
    0.1475   -0.3938    2.7522 N   0  0  0  0  0  0  0  0  0  0  0  0
   -0.8401   -0.3734    1.7680 C   0  0  0  0  0  0  0  0  0  0  0  0
   -1.2423    0.7886    1.1270 C   0  0  0  0  0  0  0  0  0  0  0  0
   -2.2322    0.7871    0.1584 C   0  0  0  0  0  0  0  0  0  0  0  0
   -2.8585   -0.3839   -0.2052 C   0  0  0  0  0  0  0  0  0  0  0  0
   -3.9041   -0.4495   -1.2151 C   0  0  0  0  0  0  0  0  0  0  0  0
   -3.9220    0.4134   -2.2987 C   0  0  0  0  0  0  0  0  0  0  0  0
   -4.8976    0.3774   -3.2716 C   0  0  0  0  0  0  0  0  0  0  0  0
   -5.8871   -0.5476   -3.1620 N   0  0  0  0  0  0  0  0  0  0  0  0
   -5.8917   -1.3931   -2.1233 C   0  0  0  0  0  0  0  0  0  0  0  0
   -4.9257   -1.3740   -1.1396 C   0  0  0  0  0  0  0  0  0  0  0  0
   -2.4734   -1.5439    0.4192 C   0  0  0  0  0  0  0  0  0  0  0  0
   -1.4781   -1.5350    1.3916 C   0  0  0  0  0  0  0  0  0  0  0  0
   -1.1484   -2.8333    2.0026 C   0  0  0  0  0  0  0  0  0  0  0  0
   -1.3689   -2.8855    3.3514 F   0  0  0  0  0  0  0  0  0  0  0  0
    0.1856   -3.1401    1.6953 F   0  0  0  0  0  0  0  0  0  0  0  0
   -1.8845   -3.8542    1.4379 F   0  0  0  0  0  0  0  0  0  0  0  0
    3.8576   -0.5345    1.4440 S   0  0  0  0  0  0  0  0  0  0  0  0
    4.4930   -0.0691   -0.0642 C   0  0  0  0  0  0  0  0  0  0  0  0
    5.5604   -0.5436   -0.8282 C   0  0  0  0  0  0  0  0  0  0  0  0
    5.8651    0.0292   -2.0440 C   0  0  0  0  0  0  0  0  0  0  0  0
    5.0502    1.0754   -2.4240 C   0  0  0  0  0  0  0  0  0  0  0  0
    5.3446    1.6502   -3.6287 F   0  0  0  0  0  0  0  0  0  0  0  0
    4.0035    1.5465   -1.6830 C   0  0  0  0  0  0  0  0  0  0  0  0
    3.6884    0.9637   -0.4390 C   0  0  0  0  0  0  0  0  0  0  0  0
    2.2632    3.2327   -0.4618 H   0  0  0  0  0  0  0  0  0  0  0  0
    0.8147    2.1147   -0.3634 H   0  0  0  0  0  0  0  0  0  0  0  0
    1.4625    2.9427    1.0843 H   0  0  0  0  0  0  0  0  0  0  0  0
    0.0684   -1.1576    3.4924 H   0  0  0  0  0  0  0  0  0  0  0  0
   -0.7369    1.6883    1.4368 H   0  0  0  0  0  0  0  0  0  0  0  0
   -2.5320    1.7186   -0.3335 H   0  0  0  0  0  0  0  0  0  0  0  0
   -3.1036    1.1406   -2.3425 H   0  0  0  0  0  0  0  0  0  0  0  0
   -4.8830    1.0729   -4.1150 H   0  0  0  0  0  0  0  0  0  0  0  0
   -6.6901   -2.1191   -2.0600 H   0  0  0  0  0  0  0  0  0  0  0  0
   -4.9785   -2.0681   -0.3377 H   0  0  0  0  0  0  0  0  0  0  0  0
   -2.9593   -2.4667    0.1403 H   0  0  0  0  0  0  0  0  0  0  0  0
    6.1647   -1.3647   -0.4825 H   0  0  0  0  0  0  0  0  0  0  0  0
    6.6710   -0.2960   -2.6678 H   0  0  0  0  0  0  0  0  0  0  0  0
    3.4493    2.3709   -2.1004 H   0  0  0  0  0  0  0  0  0  0  0  0
  1  2  1  0
  2  3  2  0
  3  4  1  0
  4  5  2  0
  4  6  2  0
  4  7  1  0
  7  8  1  0
  8  9  2  0
  9 10  1  0
 10 11  2  0
 11 12  1  0
 12 13  2  0
 13 14  1  0
 14 15  2  0
 15 16  1  0
 16 17  2  0
 11 18  1  0
 18 19  2  0
 19 20  1  0
 20 21  1  0
 20 22  1  0
 20 23  1  0
  3 24  1  0
 24 25  1  0
 25 26  2  0
 26 27  1  0
 27 28  2  0
 28 29  1  0
 28 30  1  0
 30 31  2  0
 31  2  1  0
 19  8  1  0
 31 25  1  0
 17 12  1  0
  1 32  1  0
  1 33  1  0
  1 34  1  0
  7 35  1  0
  9 36  1  0
 10 37  1  0
 13 38  1  0
 14 39  1  0
 16 40  1  0
 17 41  1  0
 18 42  1  0
 26 43  1  0
 27 44  1  0
 30 45  1  0
M  END
$$$$
