
     RDKit          3D

 48 51  0  0  0  0  0  0  0  0999 V2000
    5.5386   -0.5921    2.0693 C   0  0  0  0  0  0  0  0  0  0  0  0
    5.5582   -0.1114    0.7655 O   0  0  0  0  0  0  0  0  0  0  0  0
    4.3669   -0.2235    0.1008 C   0  0  0  0  0  0  0  0  0  0  0  0
    3.2134    0.5191    0.7266 C   0  0  0  0  0  0  0  0  0  0  0  0
    1.9895    0.3399   -0.0470 N   0  0  0  0  0  0  0  0  0  0  0  0
    1.0316   -0.6255    0.0606 C   0  0  0  0  0  0  0  0  0  0  0  0
    1.1599   -1.7086    1.0357 C   0  0  0  0  0  0  0  0  0  0  0  0
    2.1973   -1.6938    1.7918 O   0  0  0  0  0  0  0  0  0  0  0  0
    0.2631   -2.7400    1.2061 O   0  0  0  0  0  0  0  0  0  0  0  0
    0.0280   -0.4247   -0.8589 C   0  0  0  0  0  0  0  0  0  0  0  0
   -1.1659   -1.2172   -1.1808 C   0  0  0  0  0  0  0  0  0  0  0  0
   -2.2487   -1.4045   -0.2738 C   0  0  0  0  0  0  0  0  0  0  0  0
   -2.5628   -2.6877    0.2218 C   0  0  0  0  0  0  0  0  0  0  0  0
   -3.6120   -2.9607    1.0380 C   0  0  0  0  0  0  0  0  0  0  0  0
   -4.4510   -1.9617    1.4350 C   0  0  0  0  0  0  0  0  0  0  0  0
   -4.2079   -0.6890    0.9911 C   0  0  0  0  0  0  0  0  0  0  0  0
   -5.0585    0.3376    1.3794 C   0  0  0  0  0  0  0  0  0  0  0  0
   -4.8691    1.6417    0.9558 C   0  0  0  0  0  0  0  0  0  0  0  0
   -3.8136    1.8922    0.1385 C   0  0  0  0  0  0  0  0  0  0  0  0
   -2.9834    0.8695   -0.2356 C   0  0  0  0  0  0  0  0  0  0  0  0
   -3.1196   -0.4370    0.1513 C   0  0  0  0  0  0  0  0  0  0  0  0
    0.4373    0.7385   -1.5504 C   0  0  0  0  0  0  0  0  0  0  0  0
   -0.1236    1.4334   -2.6004 C   0  0  0  0  0  0  0  0  0  0  0  0
    0.4949    2.5502   -3.1256 C   0  0  0  0  0  0  0  0  0  0  0  0
    1.6859    2.9791   -2.5980 C   0  0  0  0  0  0  0  0  0  0  0  0
    2.2613    2.3006   -1.5530 C   0  0  0  0  0  0  0  0  0  0  0  0
    1.6145    1.1631   -1.0325 C   0  0  0  0  0  0  0  0  0  0  0  0
    6.5569   -0.4734    2.5473 H   0  0  0  0  0  0  0  0  0  0  0  0
    5.3176   -1.6682    2.0204 H   0  0  0  0  0  0  0  0  0  0  0  0
    4.8084   -0.0582    2.7002 H   0  0  0  0  0  0  0  0  0  0  0  0
    4.1651   -1.3044   -0.0442 H   0  0  0  0  0  0  0  0  0  0  0  0
    4.4947    0.1809   -0.9503 H   0  0  0  0  0  0  0  0  0  0  0  0
    3.0645    0.3429    1.7794 H   0  0  0  0  0  0  0  0  0  0  0  0
    3.5151    1.6188    0.6650 H   0  0  0  0  0  0  0  0  0  0  0  0
    0.6610   -3.6811    1.3447 H   0  0  0  0  0  0  0  0  0  0  0  0
   -0.7394   -2.2555   -1.4182 H   0  0  0  0  0  0  0  0  0  0  0  0
   -1.5266   -0.9349   -2.2352 H   0  0  0  0  0  0  0  0  0  0  0  0
   -1.9320   -3.4939   -0.0877 H   0  0  0  0  0  0  0  0  0  0  0  0
   -3.8028   -3.9794    1.3901 H   0  0  0  0  0  0  0  0  0  0  0  0
   -5.2942   -2.1308    2.0805 H   0  0  0  0  0  0  0  0  0  0  0  0
   -5.8919    0.1054    2.0320 H   0  0  0  0  0  0  0  0  0  0  0  0
   -5.5689    2.3903    1.2963 H   0  0  0  0  0  0  0  0  0  0  0  0
   -3.6212    2.8860   -0.2195 H   0  0  0  0  0  0  0  0  0  0  0  0
   -2.1771    1.0999   -0.8816 H   0  0  0  0  0  0  0  0  0  0  0  0
   -1.0635    1.0575   -2.9877 H   0  0  0  0  0  0  0  0  0  0  0  0
    0.0179    3.0480   -3.9356 H   0  0  0  0  0  0  0  0  0  0  0  0
    2.2089    3.8472   -2.9735 H   0  0  0  0  0  0  0  0  0  0  0  0
    3.1830    2.6197   -1.1333 H   0  0  0  0  0  0  0  0  0  0  0  0
  1  2  1  0
  2  3  1  0
  3  4  1  0
  4  5  1  0
  5  6  1  0
  6  7  1  0
  7  8  2  0
  7  9  1  0
  6 10  2  0
 10 11  1  0
 11 12  1  0
 12 13  2  0
 13 14  1  0
 14 15  2  0
 15 16  1  0
 16 17  2  0
 17 18  1  0
 18 19  2  0
 19 20  1  0
 20 21  2  0
 10 22  1  0
 22 23  2  0
 23 24  1  0
 24 25  2  0
 25 26  1  0
 26 27  2  0
 27  5  1  0
 21 12  1  0
 27 22  1  0
 21 16  1  0
  1 28  1  0
  1 29  1  0
  1 30  1  0
  3 31  1  0
  3 32  1  0
  4 33  1  0
  4 34  1  0
  9 35  1  0
 11 36  1  0
 11 37  1  0
 13 38  1  0
 14 39  1  0
 15 40  1  0
 17 41  1  0
 18 42  1  0
 19 43  1  0
 20 44  1  0
 23 45  1  0
 24 46  1  0
 25 47  1  0
 26 48  1  0
M  END
$$$$
