
     RDKit          3D

 45 47  0  0  0  0  0  0  0  0999 V2000
    5.0199    3.8106    1.6886 C   0  0  0  0  0  0  0  0  0  0  0  0
    4.0681    3.0666    0.9452 O   0  0  0  0  0  0  0  0  0  0  0  0
    4.0699    1.6913    0.9721 C   0  0  0  0  0  0  0  0  0  0  0  0
    4.9290    1.0970    1.6666 O   0  0  0  0  0  0  0  0  0  0  0  0
    3.0818    0.9455    0.1998 C   0  0  0  0  0  0  0  0  0  0  0  0
    2.1453    1.6142   -0.5576 C   0  0  0  0  0  0  0  0  0  0  0  0
    1.2180    0.8717   -1.2815 C   0  0  0  0  0  0  0  0  0  0  0  0
    1.2040   -0.4995   -1.2667 C   0  0  0  0  0  0  0  0  0  0  0  0
    0.2771   -1.2672   -1.9991 N   0  0  0  0  0  0  0  0  0  0  0  0
   -1.1478   -0.5727   -2.6073 S   0  0  0  0  0  6  0  0  0  0  0  0
   -1.9457   -1.5847   -3.3811 O   0  0  0  0  0  0  0  0  0  0  0  0
   -0.7827    0.5091   -3.5956 O   0  0  0  0  0  0  0  0  0  0  0  0
   -2.2177    0.0569   -1.3705 C   0  0  0  0  0  0  0  0  0  0  0  0
   -2.2357    1.6310   -0.7317 S   0  0  0  0  0  0  0  0  0  0  0  0
   -3.5149    1.4687    0.3837 C   0  0  0  0  0  0  0  0  0  0  0  0
   -4.1217    2.3488    1.2911 C   0  0  0  0  0  0  0  0  0  0  0  0
   -5.1724    1.9203    2.0904 C   0  0  0  0  0  0  0  0  0  0  0  0
   -5.5468    0.6141    1.9193 C   0  0  0  0  0  0  0  0  0  0  0  0
   -6.5843    0.1786    2.7036 F   0  0  0  0  0  0  0  0  0  0  0  0
   -4.9723   -0.2595    1.0443 C   0  0  0  0  0  0  0  0  0  0  0  0
   -3.9006    0.1686    0.2255 C   0  0  0  0  0  0  0  0  0  0  0  0
   -3.2254   -0.5682   -0.6883 C   0  0  0  0  0  0  0  0  0  0  0  0
   -3.5035   -2.0342   -1.0124 C   0  0  0  0  0  0  0  0  0  0  0  0
    2.1489   -1.1467   -0.5032 C   0  0  0  0  0  0  0  0  0  0  0  0
    2.1667   -2.8937   -0.4571 S   0  0  0  0  0  6  0  0  0  0  0  0
    3.4810   -3.4718    0.6008 C   0  0  0  0  0  0  0  0  0  0  0  0
    2.4509   -3.4739   -1.8306 O   0  0  0  0  0  0  0  0  0  0  0  0
    0.8867   -3.4412    0.0931 O   0  0  0  0  0  0  0  0  0  0  0  0
    3.0885   -0.4498    0.2311 C   0  0  0  0  0  0  0  0  0  0  0  0
    5.9092    3.9475    1.0360 H   0  0  0  0  0  0  0  0  0  0  0  0
    5.2805    3.3122    2.6388 H   0  0  0  0  0  0  0  0  0  0  0  0
    4.6264    4.8194    1.9362 H   0  0  0  0  0  0  0  0  0  0  0  0
    2.1423    2.6955   -0.5801 H   0  0  0  0  0  0  0  0  0  0  0  0
    0.4973    1.4112   -1.8715 H   0  0  0  0  0  0  0  0  0  0  0  0
    0.4692   -2.2850   -2.1728 H   0  0  0  0  0  0  0  0  0  0  0  0
   -3.7610    3.3497    1.3541 H   0  0  0  0  0  0  0  0  0  0  0  0
   -5.6188    2.6036    2.7721 H   0  0  0  0  0  0  0  0  0  0  0  0
   -5.3585   -1.2697    1.0011 H   0  0  0  0  0  0  0  0  0  0  0  0
   -2.5340   -2.5698   -1.0751 H   0  0  0  0  0  0  0  0  0  0  0  0
   -4.1005   -2.1185   -1.9261 H   0  0  0  0  0  0  0  0  0  0  0  0
   -4.0669   -2.4687   -0.1806 H   0  0  0  0  0  0  0  0  0  0  0  0
    3.5138   -2.9263    1.5572 H   0  0  0  0  0  0  0  0  0  0  0  0
    4.4714   -3.3187    0.1092 H   0  0  0  0  0  0  0  0  0  0  0  0
    3.3368   -4.5645    0.7403 H   0  0  0  0  0  0  0  0  0  0  0  0
    3.8287   -0.9482    0.8291 H   0  0  0  0  0  0  0  0  0  0  0  0
  1  2  1  0
  2  3  1  0
  3  4  2  0
  3  5  1  0
  5  6  2  0
  6  7  1  0
  7  8  2  0
  8  9  1  0
  9 10  1  0
 10 11  2  0
 10 12  2  0
 10 13  1  0
 13 14  1  0
 14 15  1  0
 15 16  2  0
 16 17  1  0
 17 18  2  0
 18 19  1  0
 18 20  1  0
 20 21  2  0
 21 22  1  0
 22 23  1  0
  8 24  1  0
 24 25  1  0
 25 26  1  0
 25 27  2  0
 25 28  2  0
 24 29  2  0
 29  5  1  0
 22 13  2  0
 21 15  1  0
  1 30  1  0
  1 31  1  0
  1 32  1  0
  6 33  1  0
  7 34  1  0
  9 35  1  0
 16 36  1  0
 17 37  1  0
 20 38  1  0
 23 39  1  0
 23 40  1  0
 23 41  1  0
 26 42  1  0
 26 43  1  0
 26 44  1  0
 29 45  1  0
M  END
$$$$
