l06.pdb
 OpenBabel08152411093D

 74 78  0  0  1  0  0  0  0  0999 V2000
  -30.5700   21.4720    9.0530 O   0  0  0  0  0  0  0  0  0  0  0  0
  -29.8870   20.8340    8.2930 C   0  0  0  0  0  0  0  0  0  0  0  0
  -28.5300   20.9730    7.7720 C   0  0  0  0  0  0  0  0  0  0  0  0
  -27.4070   21.9660    7.9790 C   0  0  2  0  0  0  0  0  0  0  0  0
  -26.8370   22.4270    6.6750 C   0  0  0  0  0  0  0  0  0  0  0  0
  -26.6070   23.8400    6.2440 C   0  0  0  0  0  0  0  0  0  0  0  0
  -26.9040   25.1110    7.0340 C   0  0  0  0  0  0  0  0  0  0  0  0
  -25.8070   25.4950    8.0410 C   0  0  0  0  0  0  0  0  0  0  0  0
  -25.9960   24.8600    9.3550 N   0  0  0  0  0  0  0  0  0  0  0  0
  -27.0050   24.9890   10.1250 C   0  0  0  0  0  0  0  0  0  0  0  0
  -28.0570   25.7530    9.8190 O   0  0  0  0  0  0  0  0  0  0  0  0
  -26.9800   24.2450   11.4330 C   0  0  0  0  0  0  0  0  0  0  0  0
  -25.7850   27.0160    8.1760 C   0  0  0  0  0  0  0  0  0  0  0  0
  -24.4160   25.0740    7.5800 C   0  0  0  0  0  0  0  0  0  0  0  0
  -26.0790   23.7410    4.9530 C   0  0  0  0  0  0  0  0  0  0  0  0
  -25.6690   24.7470    4.0680 C   0  0  0  0  0  0  0  0  0  0  0  0
  -25.1570   24.3800    2.8180 C   0  0  0  0  0  0  0  0  0  0  0  0
  -25.0480   23.0260    2.4640 C   0  0  0  0  0  0  0  0  0  0  0  0
  -24.4860   22.6360    1.1190 C   0  0  0  0  0  0  0  0  0  0  0  0
  -25.4610   22.0310    3.3540 C   0  0  0  0  0  0  0  0  0  0  0  0
  -25.9780   22.3870    4.6100 C   0  0  0  0  0  0  0  0  0  0  0  0
  -26.4370   21.6320    5.6450 N   0  0  0  0  0  0  0  0  0  0  0  0
  -26.3710   21.3450    8.8730 C   0  0  0  0  0  0  0  0  0  0  0  0
  -25.0500   21.1400    8.4500 C   0  0  0  0  0  0  0  0  0  0  0  0
  -24.1060   20.5560    9.3020 C   0  0  0  0  0  0  0  0  0  0  0  0
  -24.4690   20.1670   10.5960 C   0  0  0  0  0  0  0  0  0  0  0  0
  -25.7850   20.3680   11.0270 C   0  0  0  0  0  0  0  0  0  0  0  0
  -26.7300   20.9550   10.1720 C   0  0  0  0  0  0  0  0  0  0  0  0
  -28.7030   19.8240    7.0490 C   0  0  0  0  0  0  0  0  0  0  0  0
  -27.9130   19.1630    6.2280 O   0  5  0  0  0  0  0  0  0  0  0  0
  -30.1090   19.4970    7.4700 C   0  0  2  0  0  0  0  0  0  0  0  0
  -31.2060   19.6490    6.3970 C   0  0  0  0  0  0  0  0  0  0  0  0
  -30.2220   18.2920    8.3810 C   0  0  0  0  0  0  0  0  0  0  0  0
  -30.7190   17.0740    7.8930 C   0  0  0  0  0  0  0  0  0  0  0  0
  -30.8080   15.9580    8.7400 C   0  0  0  0  0  0  0  0  0  0  0  0
  -30.3900   16.0500   10.0790 C   0  0  0  0  0  0  0  0  0  0  0  0
  -30.4850   14.8570   11.0090 C   0  0  0  0  0  0  0  0  0  0  0  0
  -29.8860   17.2550   10.5620 C   0  0  0  0  0  0  0  0  0  0  0  0
  -29.8060   18.3670    9.7140 C   0  0  0  0  0  0  0  0  0  0  0  0
  -27.7862   22.8452    8.4566 H   0  0  0  0  0  0  0  0  0  0  0  0
  -27.8179   24.9668    7.5714 H   0  0  0  0  0  0  0  0  0  0  0  0
  -26.9639   25.9090    6.3237 H   0  0  0  0  0  0  0  0  0  0  0  0
  -25.2697   24.2760    9.6723 H   0  0  0  0  0  0  0  0  0  0  0  0
  -26.0692   23.6887   11.5095 H   0  0  0  0  0  0  0  0  0  0  0  0
  -27.8125   23.5743   11.4778 H   0  0  0  0  0  0  0  0  0  0  0  0
  -27.0406   24.9431   12.2416 H   0  0  0  0  0  0  0  0  0  0  0  0
  -26.7455   27.3593    8.4992 H   0  0  0  0  0  0  0  0  0  0  0  0
  -25.5496   27.4548    7.2289 H   0  0  0  0  0  0  0  0  0  0  0  0
  -25.0445   27.2996    8.8944 H   0  0  0  0  0  0  0  0  0  0  0  0
  -24.3832   24.0101    7.4710 H   0  0  0  0  0  0  0  0  0  0  0  0
  -23.6918   25.3807    8.3055 H   0  0  0  0  0  0  0  0  0  0  0  0
  -24.1968   25.5358    6.6400 H   0  0  0  0  0  0  0  0  0  0  0  0
  -25.7432   25.7416    4.3333 H   0  0  0  0  0  0  0  0  0  0  0  0
  -24.8577   25.1096    2.1523 H   0  0  0  0  0  0  0  0  0  0  0  0
  -24.2236   23.5179    0.5728 H   0  0  0  0  0  0  0  0  0  0  0  0
  -25.2209   22.0831    0.5721 H   0  0  0  0  0  0  0  0  0  0  0  0
  -23.6149   22.0304    1.2584 H   0  0  0  0  0  0  0  0  0  0  0  0
  -25.3862   21.0365    3.0887 H   0  0  0  0  0  0  0  0  0  0  0  0
  -26.4745   20.6482    5.6483 H   0  0  0  0  0  0  0  0  0  0  0  0
  -24.7703   21.4235    7.4979 H   0  0  0  0  0  0  0  0  0  0  0  0
  -23.1380   20.4116    8.9745 H   0  0  0  0  0  0  0  0  0  0  0  0
  -23.7738   19.7366   11.2257 H   0  0  0  0  0  0  0  0  0  0  0  0
  -26.0621   20.0828   11.9793 H   0  0  0  0  0  0  0  0  0  0  0  0
  -27.6971   21.1011   10.5013 H   0  0  0  0  0  0  0  0  0  0  0  0
  -31.0203   20.5304    5.8195 H   0  0  0  0  0  0  0  0  0  0  0  0
  -32.1613   19.7287    6.8724 H   0  0  0  0  0  0  0  0  0  0  0  0
  -31.1976   18.7933    5.7546 H   0  0  0  0  0  0  0  0  0  0  0  0
  -31.0199   16.9983    6.9088 H   0  0  0  0  0  0  0  0  0  0  0  0
  -31.1817   15.0667    8.3783 H   0  0  0  0  0  0  0  0  0  0  0  0
  -30.8908   14.0218   10.4774 H   0  0  0  0  0  0  0  0  0  0  0  0
  -31.1219   15.0980   11.8344 H   0  0  0  0  0  0  0  0  0  0  0  0
  -29.5094   14.6090   11.3718 H   0  0  0  0  0  0  0  0  0  0  0  0
  -29.5722   17.3285   11.5424 H   0  0  0  0  0  0  0  0  0  0  0  0
  -29.4335   19.2574   10.0794 H   0  0  0  0  0  0  0  0  0  0  0  0
  1  2  2  0  0  0  0
  2  3  1  0  0  0  0
  2 31  1  0  0  0  0
  3  4  1  0  0  0  0
  3 29  2  0  0  0  0
  4  5  1  0  0  0  0
  4 23  1  0  0  0  0
  4 40  1  1  0  0  0
  5  6  2  0  0  0  0
  5 22  1  0  0  0  0
  6  7  1  0  0  0  0
  6 15  1  0  0  0  0
  7  8  1  0  0  0  0
  7 41  1  0  0  0  0
  7 42  1  0  0  0  0
  8  9  1  0  0  0  0
  8 13  1  0  0  0  0
  8 14  1  0  0  0  0
  9 10  1  0  0  0  0
  9 43  1  0  0  0  0
 10 11  2  0  0  0  0
 10 12  1  0  0  0  0
 12 44  1  0  0  0  0
 12 45  1  0  0  0  0
 12 46  1  0  0  0  0
 13 47  1  0  0  0  0
 13 48  1  0  0  0  0
 13 49  1  0  0  0  0
 14 50  1  0  0  0  0
 14 51  1  0  0  0  0
 14 52  1  0  0  0  0
 15 16  2  0  0  0  0
 15 21  1  0  0  0  0
 16 17  1  0  0  0  0
 16 53  1  0  0  0  0
 17 18  2  0  0  0  0
 17 54  1  0  0  0  0
 18 19  1  0  0  0  0
 18 20  1  0  0  0  0
 19 55  1  0  0  0  0
 19 56  1  0  0  0  0
 19 57  1  0  0  0  0
 20 21  2  0  0  0  0
 20 58  1  0  0  0  0
 21 22  1  0  0  0  0
 22 59  1  0  0  0  0
 23 24  2  0  0  0  0
 23 28  1  0  0  0  0
 24 25  1  0  0  0  0
 24 60  1  0  0  0  0
 25 26  2  0  0  0  0
 25 61  1  0  0  0  0
 26 27  1  0  0  0  0
 26 62  1  0  0  0  0
 27 28  2  0  0  0  0
 27 63  1  0  0  0  0
 28 64  1  0  0  0  0
 29 30  1  0  0  0  0
 29 31  1  0  0  0  0
 31 32  1  6  0  0  0
 31 33  1  0  0  0  0
 32 65  1  0  0  0  0
 32 66  1  0  0  0  0
 32 67  1  0  0  0  0
 33 34  2  0  0  0  0
 33 39  1  0  0  0  0
 34 35  1  0  0  0  0
 34 68  1  0  0  0  0
 35 36  2  0  0  0  0
 35 69  1  0  0  0  0
 36 37  1  0  0  0  0
 36 38  1  0  0  0  0
 37 70  1  0  0  0  0
 37 71  1  0  0  0  0
 37 72  1  0  0  0  0
 38 39  2  0  0  0  0
 38 73  1  0  0  0  0
 39 74  1  0  0  0  0
M  CHG  1  30  -1
M  END
$$$$
